1E3K_R18_A_1000
  RCSB PDB07051714253D
Coordinates from PDB:1E3K:A:1000 Model:1 without hydrogens
 21 24  0  0  0  0            999 V2000
   30.2050   -8.8910    6.1810   C 0  0  0  0  0  0  0  0  0  0  0  0
   29.5480   -9.1350    4.8110   C 0  0  0  0  0  0  0  0  0  0  0  0
   28.9710  -10.5340    4.7870   C 0  0  0  0  0  0  0  0  0  0  0  0
   28.2280  -10.8560    6.0010   C 0  0  0  0  0  0  0  0  0  0  0  0
   28.0190   -9.9530    6.9260   C 0  0  0  0  0  0  0  0  0  0  0  0
   26.7020   -9.7440    7.6350   C 0  0  0  0  0  0  0  0  0  0  0  0
   27.1720   -9.6340    9.1230   C 0  0  0  0  0  0  0  0  0  0  0  0
   27.8090   -8.2340    9.1730   C 0  0  0  0  0  0  0  0  0  0  0  0
   29.0100   -8.0730    8.2480   C 0  0  0  0  0  0  0  0  0  0  0  0
   29.0960   -9.0050    7.2430   C 0  0  0  0  0  0  0  0  0  0  0  0
   30.0190   -6.9690    8.6520   C 0  0  0  0  0  0  0  0  0  0  0  0
   29.6960   -6.1970    9.6640   C 0  0  0  0  0  0  0  0  0  0  0  0
   28.5970   -6.4450   10.6570   C 0  0  0  0  0  0  0  0  0  0  0  0
   28.2390   -7.9530   10.6410   C 0  0  0  0  0  0  0  0  0  0  0  0
   27.1280   -8.0540   11.6940   C 0  0  0  0  0  0  0  0  0  0  0  0
   27.3260   -6.8140   12.6460   C 0  0  0  0  0  0  0  0  0  0  0  0
   28.6770   -6.1700   12.2670   C 0  0  0  0  0  0  0  0  0  0  0  0
   27.4850   -5.5810    9.9590   C 0  0  0  0  0  0  0  0  0  0  0  0
   29.9990   -6.8290   12.8010   C 0  0  0  0  0  0  0  0  0  0  0  0
   29.0520  -11.3400    3.8400   O 0  0  0  0  0  0  0  0  0  0  0  0
   28.7650   -4.8420   12.7290   O 0  0  0  0  0  0  0  0  0  0  0  0
  1  2  1  0  0  0  0
  1 10  1  0  0  0  0
  2  3  1  0  0  0  0
  3  4  1  0  0  0  0
  3 20  2  0  0  0  0
  4  5  2  0  0  0  0
  5  6  1  0  0  0  0
  5 10  1  0  0  0  0
  6  7  1  0  0  0  0
  7  8  1  0  0  0  0
  8  9  1  0  0  0  0
  8 14  1  0  0  0  0
  9 10  2  0  0  0  0
  9 11  1  0  0  0  0
 11 12  2  0  0  0  0
 12 13  1  0  0  0  0
 13 14  1  0  0  0  0
 13 17  1  0  0  0  0
 13 18  1  0  0  0  0
 14 15  1  0  0  0  0
 15 16  1  0  0  0  0
 16 17  1  0  0  0  0
 17 19  1  0  0  0  0
 17 21  1  0  0  0  0
A    1
C1
A    2
C2
A    3
C3
A    4
C4
A    5
C5
A    6
C6
A    7
C7
A    8
C8
A    9
C9
A   10
C10
A   11
C11
A   12
C12
A   13
C13
A   14
C14
A   15
C15
A   16
C16
A   17
C17
A   18
C18
A   19
C27
A   20
O83
A   21
O97
M  END
>  <InstanceId>
1E3K_R18_A_1000

>  <ChemCompId>
R18

>  <PdbId>
1E3K

>  <ChainId>
A

>  <ResidueNumber>
1000

>  <InsertionCode>


>  <Model>
1

>  <AltIds>


>  <MissingHeavyAtoms>
0

>  <ObservedFormula>
C19 O2

>  <Name>
(17BETA)-17-HYDROXY-17-METHYLESTRA-4,9,11-TRIEN-3-ONE

>  <SystematicName>
(8S,13S,14S,17S)-17-hydroxy-13,17-dimethyl-1,2,6,7,8,14,15,16-octahydrocyclopenta[a]phenanthren-3-one

>  <Synonyms>
METHYLTRIENOLONE; 17BETA-HYDROXY-17METHYL-19NORANDROSTA-4,9,11-TRIEN-3-ONE; R1881

>  <Type>
NON-POLYMER

>  <Formula>
C19 H24 O2

>  <MolecularWeight>
284.393

>  <ModifiedDate>
2011-06-04

>  <Parent>


>  <OneLetterCode>


>  <SubcomponentList>


>  <AmbiguousFlag>
N

>  <InChI>
InChI=1S/C19H24O2/c1-18-9-7-15-14-6-4-13(20)11-12(14)3-5-16(15)17(18)8-10-19(18,2)21/h7,9,11,16-17,21H,3-6,8,10H2,1-2H3/t16-,17+,18+,19+/m1/s1

>  <InChIKey>
CCCIJQPRIXGQOE-XWSJACJDSA-N

>  <SMILES>
C[C@@]1(CC[C@@H]2[C@@]1(C=CC3=C4CCC(=O)C=C4CC[C@@H]23)C)O

$$$$