1XQ3_R18_A_1001
  RCSB PDB07051716233D
Coordinates from PDB:1XQ3:A:1001 Model:1 without hydrogens
 21 24  0  0  0  0            999 V2000
   27.4940    5.2850    4.1900   C 0  0  0  0  0  0  0  0  0  0  0  0
   26.7470    6.4970    4.7060   C 0  0  0  0  0  0  0  0  0  0  0  0
   25.2330    6.3980    4.5620   C 0  0  0  0  0  0  0  0  0  0  0  0
   24.6340    5.0950    4.8740   C 0  0  0  0  0  0  0  0  0  0  0  0
   25.3640    3.9320    4.8880   C 0  0  0  0  0  0  0  0  0  0  0  0
   24.6540    2.6020    5.2490   C 0  0  0  0  0  0  0  0  0  0  0  0
   25.3420    1.4070    4.5670   C 0  0  0  0  0  0  0  0  0  0  0  0
   26.8550    1.3660    4.9980   C 0  0  0  0  0  0  0  0  0  0  0  0
   27.5720    2.7160    4.6180   C 0  0  0  0  0  0  0  0  0  0  0  0
   26.8490    3.9020    4.5640   C 0  0  0  0  0  0  0  0  0  0  0  0
   29.0460    2.6280    4.3450   C 0  0  0  0  0  0  0  0  0  0  0  0
   29.7660    1.4680    4.4050   C 0  0  0  0  0  0  0  0  0  0  0  0
   29.1060    0.1080    4.7270   C 0  0  0  0  0  0  0  0  0  0  0  0
   27.6020    0.1930    4.3310   C 0  0  0  0  0  0  0  0  0  0  0  0
   27.0700   -1.2390    4.6190   C 0  0  0  0  0  0  0  0  0  0  0  0
   28.3240   -2.1150    4.3290   C 0  0  0  0  0  0  0  0  0  0  0  0
   29.4830   -1.1480    3.9060   C 0  0  0  0  0  0  0  0  0  0  0  0
   29.2420   -0.1400    6.2900   C 0  0  0  0  0  0  0  0  0  0  0  0
   29.4390   -0.9470    2.3970   C 0  0  0  0  0  0  0  0  0  0  0  0
   24.5610    7.3540    4.2340   O 0  0  0  0  0  0  0  0  0  0  0  0
   30.7200   -1.7200    4.2830   O 0  0  0  0  0  0  0  0  0  0  0  0
  1  2  1  0  0  0  0
  1 10  1  0  0  0  0
  2  3  1  0  0  0  0
  3  4  1  0  0  0  0
  3 20  2  0  0  0  0
  4  5  2  0  0  0  0
  5  6  1  0  0  0  0
  5 10  1  0  0  0  0
  6  7  1  0  0  0  0
  7  8  1  0  0  0  0
  8  9  1  0  0  0  0
  8 14  1  0  0  0  0
  9 10  2  0  0  0  0
  9 11  1  0  0  0  0
 11 12  2  0  0  0  0
 12 13  1  0  0  0  0
 13 14  1  0  0  0  0
 13 17  1  0  0  0  0
 13 18  1  0  0  0  0
 14 15  1  0  0  0  0
 15 16  1  0  0  0  0
 16 17  1  0  0  0  0
 17 19  1  0  0  0  0
 17 21  1  0  0  0  0
A    1
C1
A    2
C2
A    3
C3
A    4
C4
A    5
C5
A    6
C6
A    7
C7
A    8
C8
A    9
C9
A   10
C10
A   11
C11
A   12
C12
A   13
C13
A   14
C14
A   15
C15
A   16
C16
A   17
C17
A   18
C18
A   19
C27
A   20
O83
A   21
O97
M  END
>  <InstanceId>
1XQ3_R18_A_1001

>  <ChemCompId>
R18

>  <PdbId>
1XQ3

>  <ChainId>
A

>  <ResidueNumber>
1001

>  <InsertionCode>


>  <Model>
1

>  <AltIds>


>  <MissingHeavyAtoms>
0

>  <ObservedFormula>
C19 O2

>  <Name>
(17BETA)-17-HYDROXY-17-METHYLESTRA-4,9,11-TRIEN-3-ONE

>  <SystematicName>
(8S,13S,14S,17S)-17-hydroxy-13,17-dimethyl-1,2,6,7,8,14,15,16-octahydrocyclopenta[a]phenanthren-3-one

>  <Synonyms>
METHYLTRIENOLONE; 17BETA-HYDROXY-17METHYL-19NORANDROSTA-4,9,11-TRIEN-3-ONE; R1881

>  <Type>
NON-POLYMER

>  <Formula>
C19 H24 O2

>  <MolecularWeight>
284.393

>  <ModifiedDate>
2011-06-04

>  <Parent>


>  <OneLetterCode>


>  <SubcomponentList>


>  <AmbiguousFlag>
N

>  <InChI>
InChI=1S/C19H24O2/c1-18-9-7-15-14-6-4-13(20)11-12(14)3-5-16(15)17(18)8-10-19(18,2)21/h7,9,11,16-17,21H,3-6,8,10H2,1-2H3/t16-,17+,18+,19+/m1/s1

>  <InChIKey>
CCCIJQPRIXGQOE-XWSJACJDSA-N

>  <SMILES>
C[C@@]1(CC[C@@H]2[C@@]1(C=CC3=C4CCC(=O)C=C4CC[C@@H]23)C)O

$$$$
