2AM9_TES_A_1000
  RCSB PDB07051716413D
Coordinates from PDB:2AM9:A:1000 Model:1 without hydrogens
 21 24  0  0  0  0            999 V2000
   26.9610    5.2750    4.7480   C 0  0  0  0  0  0  0  0  0  0  0  0
   26.0870    6.5150    5.0500   C 0  0  0  0  0  0  0  0  0  0  0  0
   24.7140    6.3800    4.4550   C 0  0  0  0  0  0  0  0  0  0  0  0
   24.0440    7.4060    3.9390   O 0  0  0  0  0  0  0  0  0  0  0  0
   24.1250    5.0470    4.4570   C 0  0  0  0  0  0  0  0  0  0  0  0
   24.8080    3.9090    4.8030   C 0  0  0  0  0  0  0  0  0  0  0  0
   24.0890    2.5690    4.7900   C 0  0  0  0  0  0  0  0  0  0  0  0
   24.8770    1.4740    4.0590   C 0  0  0  0  0  0  0  0  0  0  0  0
   26.3060    1.3630    4.6670   C 0  0  0  0  0  0  0  0  0  0  0  0
   27.0680    2.7200    4.5650   C 0  0  0  0  0  0  0  0  0  0  0  0
   26.3230    3.9250    5.2440   C 0  0  0  0  0  0  0  0  0  0  0  0
   28.5550    2.7000    5.0980   C 0  0  0  0  0  0  0  0  0  0  0  0
   29.3370    1.5340    4.4490   C 0  0  0  0  0  0  0  0  0  0  0  0
   28.6170    0.1640    4.6020   C 0  0  0  0  0  0  0  0  0  0  0  0
   27.1900    0.2970    3.9730   C 0  0  0  0  0  0  0  0  0  0  0  0
   26.6680   -1.1630    3.8940   C 0  0  0  0  0  0  0  0  0  0  0  0
   27.9500   -1.9990    3.6690   C 0  0  0  0  0  0  0  0  0  0  0  0
   29.1270   -0.9850    3.6840   C 0  0  0  0  0  0  0  0  0  0  0  0
   30.3270   -1.5900    4.2060   O 0  0  0  0  0  0  0  0  0  0  0  0
   28.5870   -0.2730    6.1200   C 0  0  0  0  0  0  0  0  0  0  0  0
   26.3440    3.8460    6.7980   C 0  0  0  0  0  0  0  0  0  0  0  0
  1  2  1  0  0  0  0
  1 11  1  0  0  0  0
  2  3  1  0  0  0  0
  3  4  2  0  0  0  0
  3  5  1  0  0  0  0
  5  6  2  0  0  0  0
  6  7  1  0  0  0  0
  6 11  1  0  0  0  0
  7  8  1  0  0  0  0
  8  9  1  0  0  0  0
  9 10  1  0  0  0  0
  9 15  1  0  0  0  0
 10 11  1  0  0  0  0
 10 12  1  0  0  0  0
 11 21  1  0  0  0  0
 12 13  1  0  0  0  0
 13 14  1  0  0  0  0
 14 15  1  0  0  0  0
 14 18  1  0  0  0  0
 14 20  1  0  0  0  0
 15 16  1  0  0  0  0
 16 17  1  0  0  0  0
 17 18  1  0  0  0  0
 18 19  1  0  0  0  0
A    1
C1
A    2
C2
A    3
C3
A    4
O3
A    5
C4
A    6
C5
A    7
C6
A    8
C7
A    9
C8
A   10
C9
A   11
C10
A   12
C11
A   13
C12
A   14
C13
A   15
C14
A   16
C15
A   17
C16
A   18
C17
A   19
O17
A   20
C18
A   21
C19
M  END
>  <InstanceId>
2AM9_TES_A_1000

>  <ChemCompId>
TES

>  <PdbId>
2AM9

>  <ChainId>
A

>  <ResidueNumber>
1000

>  <InsertionCode>


>  <Model>
1

>  <AltIds>


>  <MissingHeavyAtoms>
0

>  <ObservedFormula>
C19 O2

>  <Name>
TESTOSTERONE

>  <SystematicName>
(8R,9S,10R,13S,14S,17S)-17-hydroxy-10,13-dimethyl-1,2,6,7,8,9,11,12,14,15,16,17-dodecahydrocyclopenta[a]phenanthren-3-one

>  <Synonyms>


>  <Type>
NON-POLYMER

>  <Formula>
C19 H28 O2

>  <MolecularWeight>
288.424

>  <ModifiedDate>
2011-06-04

>  <Parent>


>  <OneLetterCode>


>  <SubcomponentList>


>  <AmbiguousFlag>
N

>  <InChI>
InChI=1S/C19H28O2/c1-18-9-7-13(20)11-12(18)3-4-14-15-5-6-17(21)19(15,2)10-8-16(14)18/h11,14-17,21H,3-10H2,1-2H3/t14-,15-,16-,17-,18-,19-/m0/s1

>  <InChIKey>
MUMGGOZAMZWBJJ-DYKIIFRCSA-N

>  <SMILES>
C[C@]12CC[C@H]3[C@H]([C@@H]1CC[C@@H]2O)CCC4=CC(=O)CC[C@]34C

$$$$
