2AMA_DHT_A_1001
  RCSB PDB07051716413D
Coordinates from PDB:2AMA:A:1001 Model:1 without hydrogens
 21 24  0  0  0  0            999 V2000
   27.3330    5.1460    4.3910   C 0  0  0  0  0  0  0  0  0  0  0  0
   26.4290    6.3160    4.8430   C 0  0  0  0  0  0  0  0  0  0  0  0
   24.9960    6.0700    4.2170   C 0  0  0  0  0  0  0  0  0  0  0  0
   24.6070    7.0270    3.5420   O 0  0  0  0  0  0  0  0  0  0  0  0
   24.4570    4.9470    4.4700   C 0  0  0  0  0  0  0  0  0  0  0  0
   25.2980    3.7110    3.9910   C 0  0  0  0  0  0  0  0  0  0  0  0
   24.6020    2.3300    4.2660   C 0  0  0  0  0  0  0  0  0  0  0  0
   25.4890    1.1780    3.7360   C 0  0  0  0  0  0  0  0  0  0  0  0
   26.9030    1.1550    4.4180   C 0  0  0  0  0  0  0  0  0  0  0  0
   27.5950    2.5460    4.1760   C 0  0  0  0  0  0  0  0  0  0  0  0
   26.7230    3.7620    4.7090   C 0  0  0  0  0  0  0  0  0  0  0  0
   29.0140    2.4940    4.8300   C 0  0  0  0  0  0  0  0  0  0  0  0
   29.9300    1.3520    4.3990   C 0  0  0  0  0  0  0  0  0  0  0  0
   29.2430   -0.0370    4.5080   C 0  0  0  0  0  0  0  0  0  0  0  0
   27.8190    0.0360    3.8480   C 0  0  0  0  0  0  0  0  0  0  0  0
   27.3370   -1.4250    3.9770   C 0  0  0  0  0  0  0  0  0  0  0  0
   28.6190   -2.2230    3.5900   C 0  0  0  0  0  0  0  0  0  0  0  0
   29.7780   -1.1910    3.6800   C 0  0  0  0  0  0  0  0  0  0  0  0
   30.9260   -1.8170    4.2640   O 0  0  0  0  0  0  0  0  0  0  0  0
   29.1640   -0.4420    6.0350   C 0  0  0  0  0  0  0  0  0  0  0  0
   26.5610    3.6230    6.2790   C 0  0  0  0  0  0  0  0  0  0  0  0
  1  2  1  0  0  0  0
  1 11  1  0  0  0  0
  2  3  1  0  0  0  0
  3  4  2  0  0  0  0
  3  5  1  0  0  0  0
  5  6  1  0  0  0  0
  6  7  1  0  0  0  0
  6 11  1  0  0  0  0
  7  8  1  0  0  0  0
  8  9  1  0  0  0  0
  9 10  1  0  0  0  0
  9 15  1  0  0  0  0
 10 11  1  0  0  0  0
 10 12  1  0  0  0  0
 11 21  1  0  0  0  0
 12 13  1  0  0  0  0
 13 14  1  0  0  0  0
 14 15  1  0  0  0  0
 14 18  1  0  0  0  0
 14 20  1  0  0  0  0
 15 16  1  0  0  0  0
 16 17  1  0  0  0  0
 17 18  1  0  0  0  0
 18 19  1  0  0  0  0
A    1
C1
A    2
C2
A    3
C3
A    4
O3
A    5
C4
A    6
C5
A    7
C6
A    8
C7
A    9
C8
A   10
C9
A   11
C10
A   12
C11
A   13
C12
A   14
C13
A   15
C14
A   16
C15
A   17
C16
A   18
C17
A   19
O17
A   20
C18
A   21
C19
M  END
>  <InstanceId>
2AMA_DHT_A_1001

>  <ChemCompId>
DHT

>  <PdbId>
2AMA

>  <ChainId>
A

>  <ResidueNumber>
1001

>  <InsertionCode>


>  <Model>
1

>  <AltIds>


>  <MissingHeavyAtoms>
0

>  <ObservedFormula>
C19 O2

>  <Name>
5-ALPHA-DIHYDROTESTOSTERONE

>  <SystematicName>
(5S,8R,9S,10S,13S,14S,17S)-17-hydroxy-10,13-dimethyl-1,2,4,5,6,7,8,9,11,12,14,15,16,17-tetradecahydrocyclopenta[a]phenanthren-3-one

>  <Synonyms>


>  <Type>
NON-POLYMER

>  <Formula>
C19 H30 O2

>  <MolecularWeight>
290.44

>  <ModifiedDate>
2011-06-04

>  <Parent>


>  <OneLetterCode>


>  <SubcomponentList>


>  <AmbiguousFlag>
N

>  <InChI>
InChI=1S/C19H30O2/c1-18-9-7-13(20)11-12(18)3-4-14-15-5-6-17(21)19(15,2)10-8-16(14)18/h12,14-17,21H,3-11H2,1-2H3/t12-,14-,15-,16-,17-,18-,19-/m0/s1

>  <InChIKey>
NVKAWKQGWWIWPM-ABEVXSGRSA-N

>  <SMILES>
C[C@]12CCC(=O)C[C@@H]1CC[C@@H]3[C@@H]2CC[C@]4([C@H]3CC[C@@H]4O)C

$$$$
