4K7A_DHT_A_1001
  RCSB PDB07051723313D
Coordinates from PDB:4K7A:A:1001 Model:1 without hydrogens
 21 24  0  0  0  0            999 V2000
  -27.4810    5.1530   -4.4220   C 0  0  0  0  0  0  0  0  0  0  0  0
  -26.7490    6.4920   -4.5180   C 0  0  0  0  0  0  0  0  0  0  0  0
  -25.2630    6.4590   -4.1870   C 0  0  0  0  0  0  0  0  0  0  0  0
  -24.7830    7.4530   -3.6370   O 0  0  0  0  0  0  0  0  0  0  0  0
  -24.3990    5.2440   -4.5450   C 0  0  0  0  0  0  0  0  0  0  0  0
  -25.2180    3.9870   -4.1760   C 0  0  0  0  0  0  0  0  0  0  0  0
  -24.4320    2.6720   -4.2960   C 0  0  0  0  0  0  0  0  0  0  0  0
  -25.2940    1.5240   -3.7030   C 0  0  0  0  0  0  0  0  0  0  0  0
  -26.6600    1.4060   -4.3990   C 0  0  0  0  0  0  0  0  0  0  0  0
  -27.4370    2.7210   -4.2370   C 0  0  0  0  0  0  0  0  0  0  0  0
  -26.6510    3.9100   -4.7980   C 0  0  0  0  0  0  0  0  0  0  0  0
  -28.9080    2.6800   -4.7410   C 0  0  0  0  0  0  0  0  0  0  0  0
  -29.7320    1.4850   -4.2080   C 0  0  0  0  0  0  0  0  0  0  0  0
  -28.9590    0.1880   -4.4030   C 0  0  0  0  0  0  0  0  0  0  0  0
  -27.5240    0.2660   -3.8380   C 0  0  0  0  0  0  0  0  0  0  0  0
  -27.0010   -1.1870   -3.8320   C 0  0  0  0  0  0  0  0  0  0  0  0
  -28.2850   -2.0130   -3.5930   C 0  0  0  0  0  0  0  0  0  0  0  0
  -29.4550   -1.0040   -3.5610   C 0  0  0  0  0  0  0  0  0  0  0  0
  -30.7260   -1.5520   -3.9550   O 0  0  0  0  0  0  0  0  0  0  0  0
  -28.9760   -0.1680   -5.8980   C 0  0  0  0  0  0  0  0  0  0  0  0
  -26.5480    3.7240   -6.3290   C 0  0  0  0  0  0  0  0  0  0  0  0
  1  2  1  0  0  0  0
  1 11  1  0  0  0  0
  2  3  1  0  0  0  0
  3  4  2  0  0  0  0
  3  5  1  0  0  0  0
  5  6  1  0  0  0  0
  6  7  1  0  0  0  0
  6 11  1  0  0  0  0
  7  8  1  0  0  0  0
  8  9  1  0  0  0  0
  9 10  1  0  0  0  0
  9 15  1  0  0  0  0
 10 11  1  0  0  0  0
 10 12  1  0  0  0  0
 11 21  1  0  0  0  0
 12 13  1  0  0  0  0
 13 14  1  0  0  0  0
 14 15  1  0  0  0  0
 14 18  1  0  0  0  0
 14 20  1  0  0  0  0
 15 16  1  0  0  0  0
 16 17  1  0  0  0  0
 17 18  1  0  0  0  0
 18 19  1  0  0  0  0
A    1
C1
A    2
C2
A    3
C3
A    4
O3
A    5
C4
A    6
C5
A    7
C6
A    8
C7
A    9
C8
A   10
C9
A   11
C10
A   12
C11
A   13
C12
A   14
C13
A   15
C14
A   16
C15
A   17
C16
A   18
C17
A   19
O17
A   20
C18
A   21
C19
M  END
>  <InstanceId>
4K7A_DHT_A_1001

>  <ChemCompId>
DHT

>  <PdbId>
4K7A

>  <ChainId>
A

>  <ResidueNumber>
1001

>  <InsertionCode>


>  <Model>
1

>  <AltIds>


>  <MissingHeavyAtoms>
0

>  <ObservedFormula>
C19 O2

>  <Name>
5-ALPHA-DIHYDROTESTOSTERONE

>  <SystematicName>
(5S,8R,9S,10S,13S,14S,17S)-17-hydroxy-10,13-dimethyl-1,2,4,5,6,7,8,9,11,12,14,15,16,17-tetradecahydrocyclopenta[a]phenanthren-3-one

>  <Synonyms>


>  <Type>
NON-POLYMER

>  <Formula>
C19 H30 O2

>  <MolecularWeight>
290.44

>  <ModifiedDate>
2011-06-04

>  <Parent>


>  <OneLetterCode>


>  <SubcomponentList>


>  <AmbiguousFlag>
N

>  <InChI>
InChI=1S/C19H30O2/c1-18-9-7-13(20)11-12(18)3-4-14-15-5-6-17(21)19(15,2)10-8-16(14)18/h12,14-17,21H,3-11H2,1-2H3/t12-,14-,15-,16-,17-,18-,19-/m0/s1

>  <InChIKey>
NVKAWKQGWWIWPM-ABEVXSGRSA-N

>  <SMILES>
C[C@]12CCC(=O)C[C@@H]1CC[C@@H]3[C@@H]2CC[C@]4([C@H]3CC[C@@H]4O)C

$$$$
